/*--------------------------------*- C++ -*----------------------------------*\
| =========                 |                                                 |
| \\      /  F ield         | foam-extend: Open Source CFD                    |
|  \\    /   O peration     | Version:     3.1                                |
|   \\  /    A nd           | Web:         http://www.extend-project.de       |
|    \\/     M anipulation  |                                                 |
\*---------------------------------------------------------------------------*/
FoamFile
{
    version     2.0;
    format      ascii;
    class       dictionary;
    location    "system";
    object      controlDict;
}
// * * * * * * * * * * * * * * * * * * * * * * * * * * * * * * * * * * * * * //

application         surfaceTrackingFoam;

startFrom           latestTime;

startTime           0;

stopAt              endTime;

endTime             10;

deltaT              5e-07;

writeControl        timeStep;

writeInterval       100;

cycleWrite          0;

writeFormat         ascii;

writeCompression    none;

timeFormat          general;

timePrecision       6;

runTimeModifiable   yes;

//functions
//(
//    writeSurfStabCrit
//    {
//      type writeSurfStabCrit;
//      functionObjectLib
//        (
//          "libsurfaceTracking.so"
//        );
//    }
//
//    writeCurvature
//    {
//      type writeCurvature;
//      functionObjectLib
//        (
//          "libsurfaceTracking.so"
//        );
//    }
//
//    capillaryRiseHistory
//    {
//      type capillaryRiseHistory;
//      functionObjectLibs
//        (
//           "libfunctionObjectsST.so"
//        );
//    }
//);

// ************************************************************************* //
