// -*- C++ -*-
// File generated by PyFoam - sorry for the ugliness

FoamFile
{
 version 2.0;
 format ascii; 	
 class volScalarField; 	
 object alpha.water; 	
}

dimensions [ 0 0 0 0 0 0 0 ];

internalField uniform 0;

boundaryField
{
  top
  {
    type zeroGradient;
  }

  bottom
  {
    type zeroGradient;
  }

  front
  {
    type zeroGradient;
  }

  back
  {
    type zeroGradient;
  }

  left
  {
    type zeroGradient;
  }

  right
  {
    type zeroGradient;
  }
} 	

