// -*- C++ -*-
// File generated by PyFoam - sorry for the ugliness

FoamFile
{
 version 2.0;
 format ascii; 	
 class volScalarField; 	
 object alpha; 	
}

dimensions [ 0 0 0 0 0 0 0 ];

internalField uniform 0; 	

boundaryField
{
  walls
  {
    type zeroGradient;
  }

  defaultFaces
  {
    type zeroGradient;
  }
} 	

