/*--------------------------------*- C++ -*----------------------------------*\
| =========                 |                                                |
| \\      /  F ield         | cfMesh: A library for mesh generation          |
|  \\    /   O peration     |                                                |
|   \\  /    A nd           | Author: Franjo Juretic                         |
|    \\/     M anipulation  | E-mail: franjo.juretic@c-fields.com            |
\*---------------------------------------------------------------------------*/
FoamFile
{
    version   2.0;
    format    ascii;
    class     dictionary;
    location  "system";
    object    meshDict;
}

// * * * * * * * * * * * * * * * * * * * * * * * * * * * * * * * * * * * * * //

surfaceFile "domain_box.fms";

minCellSize 10.0;

maxCellSize 20.0;

boundaryCellSize 10;

surfaceMeshRefinement
{
    star_destroyer
    {
        surfaceFile "ISD2.stl";
        // Tested up to refinement level 6 on my desktop PC.
        // This is the limit with 16GB of main memory and results
        // in around 7M cells (TT)
        additionalRefinementLevels 5;
        refinementThickness 4;
    }
}
//localRefinement
//{
//    patch001
//    {
//        cellSize 0.625;
//    }
//    patch002
//    {
//        cellSize 0.625;
//    }
//    patch003
//    {
//        cellSize 0.625;
//    }
//    patch004
//    {
//        cellSize 0.625;
//    }
//    patch005
//    {
//        cellSize 0.625;
//    }
//    patch006
//    {
//        cellSize 0.625;
//    }
//    patch007
//    {
//        cellSize 0.625;
//    }
//    patch008
//    {
//        cellSize 0.625;
//    }
//}

meshQualitySettings
{
    maxNonOrthogonality        50;
}

// ************************************************************************* //
