/*--------------------------------*- C++ -*----------------------------------*\
| =========                 |                                                 |
| \\      /  F ield         | OpenFOAM: The Open Source CFD Toolbox           |
|  \\    /   O peration     | Version:  dev                                   |
|   \\  /    A nd           | Web:      www.OpenFOAM.org                      |
|    \\/     M anipulation  |                                                 |
\*---------------------------------------------------------------------------*/
FoamFile
{
    version     2.0;
    format      ascii;
    class       dictionary;
    location    "constant/polyMesh";
    object      meshMetaDict;
}
// * * * * * * * * * * * * * * * * * * * * * * * * * * * * * * * * * * * * * //

surfaceFile     "../tetDomain/box-domain-edges.stl";

surfaceMeta
{
    nPoints         8;
    nFacets         12;
    nPatches        6;
    nFeatureEdges   0;
    patches
    {
        ascii
        {
            type            empty;
            nFacets         12;
        }
        ascii_0
        {
            type            empty;
            nFacets         2;
        }
        ascii_1
        {
            type            empty;
            nFacets         2;
        }
        ascii_2
        {
            type            empty;
            nFacets         2;
        }
        ascii_3
        {
            type            empty;
            nFacets         2;
        }
        ascii_4
        {
            type            empty;
            nFacets         2;
        }
        ascii_5
        {
            type            empty;
            nFacets         2;
        }
    }
    pointSubsets
    {
    }
    facetSubsets
    {
    }
    featureEdgeSubsets
    {
    }
}
