/*--------------------------------*- C++ -*----------------------------------*\
| =========                 |                                                 |
| \\      /  F ield         | foam-extend: Open Source CFD                    |
|  \\    /   O peration     | Version:     3.1                                |
|   \\  /    A nd           | Web:         http://www.extend-project.de       |
|    \\/     M anipulation  |                                                 |
\*---------------------------------------------------------------------------*/
FoamFile
{
    version     2.0;
    format      ascii;
    class       dictionary;
    object      blockMeshDict;
}
// * * * * * * * * * * * * * * * * * * * * * * * * * * * * * * * * * * * * * //

convertToMeters 1.0;

vertices
(
    (0 0 0)
    (1 0 0)
    (1 2 0)
    (0 2 0)
    (0 0 0.5)
    (1 0 0.5)
    (1 2 0.5)
    (0 2 0.5)
);

blocks
(
    hex (0 1 2 3 4 5 6 7) (128 256 64) simpleGrading (1 1 1)
);

edges
(
);

boundary
(
    left
    {
        type wall;
        faces
        (
            (3 2 6 7)
        );
    }

    back
    {
        type wall;
        faces
        (
            (1 0 4 5)
        );
    }

    right
    {
        type wall;
        faces
        (
            (0 3 7 4)
        );
    }

    front
    {
        type wall;
        faces
        (
            (1 5 6 2)
        );
    }

    bottom
    {
        type wall;
        faces
        (
            (0 3 2 1)
        );
    }

    top
    {
        type wall;
        faces
        (
            (4 5 6 7)
        );
    }
);

mergePatchPairs
(
);

// ************************************************************************* //
