/*--------------------------------*- C++ -*----------------------------------*\
| =========                 |                                                 |
| \\      /  F ield         | OpenFOAM: The Open Source CFD Toolbox           |
|  \\    /   O peration     | Version:  2.3.0                                 |
|   \\  /    A nd           | Web:      www.OpenFOAM.org                      |
|    \\/     M anipulation  |                                                 |
\*---------------------------------------------------------------------------*/
FoamFile
{
    version     2.0;
    format      ascii;
    class       dictionary;
    location    "system";
    object      fvSolution;
}
// * * * * * * * * * * * * * * * * * * * * * * * * * * * * * * * * * * * * * //

solvers
{
    "alpha.*"
    {
        isoFaceTol      1e-8;
        surfCellTol     1e-8;
        nAlphaBounds    3;
        snapTol         0;
        clip            false;
        writeIsoFaces   true;
        nAlphaCorr      2; //keyword for interFoam
        cAlpha          1;
        nAlphaSubCycles 1;
        reconstructionScheme plicRDF;        
    }

    pcorr
    {
        solver          PCG;
        preconditioner  DIC;
        tolerance       1e-12;
        relTol          0;
    }

    pcorrFinal
    {
        $pcorr;
    }

    p_rgh
    {
        solver          PCG;
        preconditioner  DIC;
        tolerance       1e-12;
        relTol          0.0;
        minIter         10;
    }

    p_rghFinal
    {
        $p_rgh;
    }

    U
    {
        solver          PBiCG;
        preconditioner  DILU;
        tolerance       1e-12;
        relTol          0.0;
        minIter         3;
    }

    UFinal
    {
        $U; 
    }

    rho 
    {
        solver diagonal;
    }
    
    rhoFinal
    {
        $rho;
    }

}

/*
// lentSC
PIMPLE
{
    momentumPredictor   no;
    nOuterCorrectors    25;
    nCorrectors         5;
    nNonOrthogonalCorrectors 0;

    residualControl
    {
        p_rgh
        {
                tolerance  1e-12;
                relTol     0;
                resType    absolute;
                norm       Linf;
        }

        U
        {
                tolerance  1e-12;
                relTol     0;
                resType    absolute;
                norm       Linf;
        }
     }

     // lentSC specific parameters
     phiChangeTolerance     1e-07;
     absPhiChangeTolerance  1e-16;
}
*/

PIMPLE
{
    momentumPredictor no;
    nCorrectors     3;
    nOuterCorrectors 1;
    nNonOrthogonalCorrectors 0;
    pRefCell        0;
    pRefValue       0;
}

relaxationFactors
{
    fields
    {
    }
    equations
    {
        ".*" 1;
    }
}


// ************************************************************************* //
